new line.
second line
third line
numbers
